# ================================================================
# Orca input file made in Gabedit
# ================================================================
! CAM-B3LYP 6-31G*
 
%geom scan

D 24 12 2 31 = -180, 180, 18
D 32 11 3 23 = -180, 180 , 18

# Scan the  dihedral from -180 to 180 in 18 steps

end
end
* xyz 0   1
C          5.40600        5.09700        6.71000
C          8.11400        2.78900        8.59600
C          7.49600        6.18800        6.17300
C          8.84600        2.52200       12.01400
C          4.90000        2.81900        5.83700
C          8.60700        8.38400        4.37800
C          5.65800        3.03500        8.19800
C          8.05200        5.01500        9.70200
C          8.49800       10.72300        3.66100
C          4.89300        3.70300        7.08000
C          8.82700        6.19400        5.39400
C          7.98100        3.50400        9.93400
C          9.87200        5.40600        6.19300
C         11.15100        5.08300        5.42700
C          6.35400        2.68400        5.42400
C          6.91300        4.04400        5.03300
C         10.10800        1.44200       13.84100
C          7.70700        5.88000       10.89900
C          7.15100        2.00000        6.52500
C          6.25800        5.78100       11.26600
C          9.37600       11.89700        4.01500
C          8.08000        7.32300       10.56200
N          6.71900        5.06200        6.07000
N          9.06100        3.06300       10.81100
O          7.67100        8.04200        3.70800
O         10.00000        2.03000       12.50000
C          9.19900        0.25000       13.97200
O          9.15400        9.61200        4.38500
O          7.17700        7.11900        6.88800
O          9.22500        2.38900        8.24200
N          7.03800        2.68800        7.80800
N          9.28200        7.56600        5.20300
O          7.78600        2.49900       12.58900
C          7.11200       10.92800        4.16300
C         12.12200        4.38800        6.36800
C         10.90000        4.20000        4.25700
C          8.56900       10.44900        2.17700
C         11.50800        1.01200       13.92200
C          9.89700        2.56100       14.83900
H          9.08100       12.67300        3.53300
H         10.28500       11.69900        3.77800
H          7.83500        7.89600       11.29100
H          7.61400        7.59700        9.76900
H          9.98000        7.85000        5.61800
H          4.52100        1.94800        6.03700
H          4.38100        3.22700        5.12600
H          5.68500        3.63000        8.96500
H          5.19100        2.22800        8.46600
H          9.87200        3.15600       10.54000
H          8.95100        5.23600        9.41300
H          7.45000        5.24100        8.97700
H          4.77100        5.52000        6.11000
H          5.45900        5.63900        7.51400
H         10.10600        5.91700        6.98400
H          9.47100        4.57500        6.49100
H          6.57300       10.16800        3.93100
H          7.86100        3.95500        4.85000
H          6.74000       11.71700        3.76200
H          3.96100        3.79800        7.37200
H          7.12800       11.03000        5.11700
H          8.69600        5.77000        4.52000
H         12.13500        4.84700        7.21100
H          7.11800        3.27800       10.34000
H         13.00200        4.39800        5.98500
H          6.48100        4.34000        4.21500
H         11.84200        3.48000        6.50300
H          6.83600        1.08800        6.62500
H         10.49300        3.38400        4.55300
H         11.55500        5.91900        5.11500
H         11.73200        4.00400        3.82000
H          6.38600        2.10900        4.63100
H         10.31300        4.64600        3.64100
H          8.08500        1.96400        6.26500
H          9.48600       10.34800        1.91300
H          5.72000        6.05700       10.52100
H          8.17800       11.18300        1.69700
H          8.24500        5.58700       11.66400
H          8.08700        9.64300        1.97700
H          6.07900        6.35100       12.01800
H         11.60700        0.16400       13.48400
H          6.04700        4.87400       11.49500
H         11.76400        0.92900       14.84300
H          9.32000       12.06500        4.95900
H         12.06800        1.66200       13.49100
H          9.02700        7.38200       10.41300
H         10.39300        3.33500       14.56200
H         10.20200        2.27900       15.70500
H          8.96300        2.77900       14.88400
H          8.29000        0.54800       14.05700
H          9.44300       -0.25500       14.75200
H          9.28200       -0.30400       13.19300
*
